<nodes>
    <node id="n1" x="0" y="0"/>
    <node id="n2" x="1000" y="0"/>
</nodes>