<routes><vType id="passenger" vClass="passenger" /><route id="r1" edges="e1" /><vehicle id="veh0" type="passenger" route="r1" depart="0.79" /><vehicle id="veh1" type="passenger" route="r1" depart="13.12" /><vehicle id="veh2" type="passenger" route="r1" depart="15.52" /><vehicle id="veh3" type="passenger" route="r1" depart="16.97" /><vehicle id="veh4" type="passenger" route="r1" depart="17.74" /><vehicle id="veh5" type="passenger" route="r1" depart="29.97" /><vehicle id="veh6" type="passenger" route="r1" depart="31.31" /><vehicle id="veh7" type="passenger" route="r1" depart="32.80" /><vehicle id="veh8" type="passenger" route="r1" depart="41.31" /><vehicle id="veh9" type="passenger" route="r1" depart="42.28" /><vehicle id="veh10" type="passenger" route="r1" depart="42.61" /><vehicle id="veh11" type="passenger" route="r1" depart="42.95" /><vehicle id="veh12" type="passenger" route="r1" depart="45.65" /><vehicle id="veh13" type="passenger" route="r1" depart="46.79" /><vehicle id="veh14" type="passenger" route="r1" depart="64.99" /><vehicle id="veh15" type="passenger" route="r1" depart="69.86" /><vehicle id="veh16" type="passenger" route="r1" depart="70.97" /><vehicle id="veh17" type="passenger" route="r1" depart="74.38" /><vehicle id="veh18" type="passenger" route="r1" depart="77.03" /><vehicle id="veh19" type="passenger" route="r1" depart="78.78" /><vehicle id="veh20" type="passenger" route="r1" depart="81.96" /><vehicle id="veh21" type="passenger" route="r1" depart="88.79" /><vehicle id="veh22" type="passenger" route="r1" depart="90.23" /><vehicle id="veh23" type="passenger" route="r1" depart="95.04" /><vehicle id="veh24" type="passenger" route="r1" depart="101.10" /><vehicle id="veh25" type="passenger" route="r1" depart="103.22" /><vehicle id="veh26" type="passenger" route="r1" depart="112.70" /><vehicle id="veh27" type="passenger" route="r1" depart="113.77" /><vehicle id="veh28" type="passenger" route="r1" depart="114.30" /><vehicle id="veh29" type="passenger" route="r1" depart="115.93" /><vehicle id="veh30" type="passenger" route="r1" depart="118.95" /><vehicle id="veh31" type="passenger" route="r1" depart="119.09" /><vehicle id="veh32" type="passenger" route="r1" depart="121.17" /><vehicle id="veh33" type="passenger" route="r1" depart="128.97" /><vehicle id="veh34" type="passenger" route="r1" depart="139.96" /><vehicle id="veh35" type="passenger" route="r1" depart="140.62" /><vehicle id="veh36" type="passenger" route="r1" depart="141.31" /><vehicle id="veh37" type="passenger" route="r1" depart="142.35" /><vehicle id="veh38" type="passenger" route="r1" depart="143.30" /><vehicle id="veh39" type="passenger" route="r1" depart="145.28" /><vehicle id="veh40" type="passenger" route="r1" depart="148.34" /><vehicle id="veh41" type="passenger" route="r1" depart="148.37" /><vehicle id="veh42" type="passenger" route="r1" depart="151.01" /><vehicle id="veh43" type="passenger" route="r1" depart="151.76" /><vehicle id="veh44" type="passenger" route="r1" depart="152.87" /><vehicle id="veh45" type="passenger" route="r1" depart="153.04" /><vehicle id="veh46" type="passenger" route="r1" depart="154.24" /><vehicle id="veh47" type="passenger" route="r1" depart="156.91" /><vehicle id="veh48" type="passenger" route="r1" depart="160.79" /><vehicle id="veh49" type="passenger" route="r1" depart="163.78" /><vehicle id="veh50" type="passenger" route="r1" depart="172.58" /><vehicle id="veh51" type="passenger" route="r1" depart="173.74" /><vehicle id="veh52" type="passenger" route="r1" depart="175.05" /><vehicle id="veh53" type="passenger" route="r1" depart="183.03" /><vehicle id="veh54" type="passenger" route="r1" depart="183.90" /><vehicle id="veh55" type="passenger" route="r1" depart="185.15" /><vehicle id="veh56" type="passenger" route="r1" depart="186.22" /><vehicle id="veh57" type="passenger" route="r1" depart="189.54" /><vehicle id="veh58" type="passenger" route="r1" depart="192.52" /><vehicle id="veh59" type="passenger" route="r1" depart="197.11" /><vehicle id="veh60" type="passenger" route="r1" depart="197.21" /><vehicle id="veh61" type="passenger" route="r1" depart="198.80" /><vehicle id="veh62" type="passenger" route="r1" depart="200.71" /><vehicle id="veh63" type="passenger" route="r1" depart="203.45" /><vehicle id="veh64" type="passenger" route="r1" depart="203.46" /><vehicle id="veh65" type="passenger" route="r1" depart="204.82" /><vehicle id="veh66" type="passenger" route="r1" depart="211.44" /><vehicle id="veh67" type="passenger" route="r1" depart="213.93" /><vehicle id="veh68" type="passenger" route="r1" depart="214.54" /><vehicle id="veh69" type="passenger" route="r1" depart="214.55" /><vehicle id="veh70" type="passenger" route="r1" depart="215.12" /><vehicle id="veh71" type="passenger" route="r1" depart="216.68" /><vehicle id="veh72" type="passenger" route="r1" depart="219.94" /><vehicle id="veh73" type="passenger" route="r1" depart="220.05" /><vehicle id="veh74" type="passenger" route="r1" depart="224.03" /><vehicle id="veh75" type="passenger" route="r1" depart="228.09" /><vehicle id="veh76" type="passenger" route="r1" depart="232.04" /><vehicle id="veh77" type="passenger" route="r1" depart="232.21" /><vehicle id="veh78" type="passenger" route="r1" depart="232.59" /><vehicle id="veh79" type="passenger" route="r1" depart="233.60" /><vehicle id="veh80" type="passenger" route="r1" depart="239.97" /><vehicle id="veh81" type="passenger" route="r1" depart="241.88" /><vehicle id="veh82" type="passenger" route="r1" depart="243.76" /><vehicle id="veh83" type="passenger" route="r1" depart="245.76" /><vehicle id="veh84" type="passenger" route="r1" depart="247.17" /><vehicle id="veh85" type="passenger" route="r1" depart="253.99" /><vehicle id="veh86" type="passenger" route="r1" depart="260.20" /><vehicle id="veh87" type="passenger" route="r1" depart="263.85" /><vehicle id="veh88" type="passenger" route="r1" depart="270.33" /><vehicle id="veh89" type="passenger" route="r1" depart="276.43" /><vehicle id="veh90" type="passenger" route="r1" depart="282.43" /><vehicle id="veh91" type="passenger" route="r1" depart="290.73" /><vehicle id="veh92" type="passenger" route="r1" depart="293.21" /><vehicle id="veh93" type="passenger" route="r1" depart="296.33" /><vehicle id="veh94" type="passenger" route="r1" depart="301.38" /><vehicle id="veh95" type="passenger" route="r1" depart="302.90" /><vehicle id="veh96" type="passenger" route="r1" depart="312.34" /><vehicle id="veh97" type="passenger" route="r1" depart="313.38" /><vehicle id="veh98" type="passenger" route="r1" depart="316.05" /><vehicle id="veh99" type="passenger" route="r1" depart="332.30" /><vehicle id="veh100" type="passenger" route="r1" depart="336.27" /><vehicle id="veh101" type="passenger" route="r1" depart="338.56" /><vehicle id="veh102" type="passenger" route="r1" depart="339.34" /><vehicle id="veh103" type="passenger" route="r1" depart="343.45" /><vehicle id="veh104" type="passenger" route="r1" depart="343.77" /><vehicle id="veh105" type="passenger" route="r1" depart="345.93" /><vehicle id="veh106" type="passenger" route="r1" depart="346.00" /><vehicle id="veh107" type="passenger" route="r1" depart="346.24" /><vehicle id="veh108" type="passenger" route="r1" depart="352.14" /><vehicle id="veh109" type="passenger" route="r1" depart="353.96" /><vehicle id="veh110" type="passenger" route="r1" depart="356.78" /><vehicle id="veh111" type="passenger" route="r1" depart="361.76" /><vehicle id="veh112" type="passenger" route="r1" depart="361.76" /><vehicle id="veh113" type="passenger" route="r1" depart="361.84" /><vehicle id="veh114" type="passenger" route="r1" depart="363.79" /><vehicle id="veh115" type="passenger" route="r1" depart="363.99" /><vehicle id="veh116" type="passenger" route="r1" depart="365.87" /><vehicle id="veh117" type="passenger" route="r1" depart="370.55" /><vehicle id="veh118" type="passenger" route="r1" depart="371.68" /><vehicle id="veh119" type="passenger" route="r1" depart="372.77" /><vehicle id="veh120" type="passenger" route="r1" depart="377.74" /><vehicle id="veh121" type="passenger" route="r1" depart="379.05" /><vehicle id="veh122" type="passenger" route="r1" depart="379.63" /><vehicle id="veh123" type="passenger" route="r1" depart="385.10" /><vehicle id="veh124" type="passenger" route="r1" depart="387.07" /><vehicle id="veh125" type="passenger" route="r1" depart="388.46" /><vehicle id="veh126" type="passenger" route="r1" depart="389.52" /><vehicle id="veh127" type="passenger" route="r1" depart="390.97" /><vehicle id="veh128" type="passenger" route="r1" depart="393.53" /><vehicle id="veh129" type="passenger" route="r1" depart="398.01" /><vehicle id="veh130" type="passenger" route="r1" depart="399.62" /><vehicle id="veh131" type="passenger" route="r1" depart="402.82" /><vehicle id="veh132" type="passenger" route="r1" depart="404.36" /><vehicle id="veh133" type="passenger" route="r1" depart="409.16" /><vehicle id="veh134" type="passenger" route="r1" depart="415.10" /><vehicle id="veh135" type="passenger" route="r1" depart="416.04" /><vehicle id="veh136" type="passenger" route="r1" depart="418.43" /><vehicle id="veh137" type="passenger" route="r1" depart="419.99" /><vehicle id="veh138" type="passenger" route="r1" depart="427.79" /><vehicle id="veh139" type="passenger" route="r1" depart="431.81" /><vehicle id="veh140" type="passenger" route="r1" depart="433.13" /><vehicle id="veh141" type="passenger" route="r1" depart="441.98" /><vehicle id="veh142" type="passenger" route="r1" depart="445.90" /><vehicle id="veh143" type="passenger" route="r1" depart="447.26" /><vehicle id="veh144" type="passenger" route="r1" depart="454.10" /><vehicle id="veh145" type="passenger" route="r1" depart="455.94" /><vehicle id="veh146" type="passenger" route="r1" depart="458.42" /><vehicle id="veh147" type="passenger" route="r1" depart="458.98" /><vehicle id="veh148" type="passenger" route="r1" depart="461.24" /><vehicle id="veh149" type="passenger" route="r1" depart="463.54" /><vehicle id="veh150" type="passenger" route="r1" depart="465.10" /><vehicle id="veh151" type="passenger" route="r1" depart="465.95" /><vehicle id="veh152" type="passenger" route="r1" depart="467.63" /><vehicle id="veh153" type="passenger" route="r1" depart="472.99" /><vehicle id="veh154" type="passenger" route="r1" depart="481.56" /><vehicle id="veh155" type="passenger" route="r1" depart="485.31" /><vehicle id="veh156" type="passenger" route="r1" depart="488.98" /><vehicle id="veh157" type="passenger" route="r1" depart="497.34" /><vehicle id="veh158" type="passenger" route="r1" depart="497.52" /><vehicle id="veh159" type="passenger" route="r1" depart="498.92" /><vehicle id="veh160" type="passenger" route="r1" depart="504.15" /><vehicle id="veh161" type="passenger" route="r1" depart="511.03" /><vehicle id="veh162" type="passenger" route="r1" depart="515.26" /><vehicle id="veh163" type="passenger" route="r1" depart="519.93" /><vehicle id="veh164" type="passenger" route="r1" depart="523.42" /><vehicle id="veh165" type="passenger" route="r1" depart="527.01" /><vehicle id="veh166" type="passenger" route="r1" depart="529.27" /><vehicle id="veh167" type="passenger" route="r1" depart="533.39" /><vehicle id="veh168" type="passenger" route="r1" depart="534.32" /><vehicle id="veh169" type="passenger" route="r1" depart="545.23" /><vehicle id="veh170" type="passenger" route="r1" depart="554.71" /><vehicle id="veh171" type="passenger" route="r1" depart="557.57" /><vehicle id="veh172" type="passenger" route="r1" depart="572.41" /><vehicle id="veh173" type="passenger" route="r1" depart="581.74" /><vehicle id="veh174" type="passenger" route="r1" depart="585.06" /><vehicle id="veh175" type="passenger" route="r1" depart="585.91" /><vehicle id="veh176" type="passenger" route="r1" depart="588.50" /><vehicle id="veh177" type="passenger" route="r1" depart="590.90" /><vehicle id="veh178" type="passenger" route="r1" depart="591.69" /><vehicle id="veh179" type="passenger" route="r1" depart="599.44" /><vehicle id="veh180" type="passenger" route="r1" depart="600.56" /><vehicle id="veh181" type="passenger" route="r1" depart="610.85" /><vehicle id="veh182" type="passenger" route="r1" depart="621.77" /><vehicle id="veh183" type="passenger" route="r1" depart="622.06" /><vehicle id="veh184" type="passenger" route="r1" depart="625.29" /><vehicle id="veh185" type="passenger" route="r1" depart="631.99" /><vehicle id="veh186" type="passenger" route="r1" depart="633.03" /><vehicle id="veh187" type="passenger" route="r1" depart="633.38" /><vehicle id="veh188" type="passenger" route="r1" depart="636.67" /><vehicle id="veh189" type="passenger" route="r1" depart="639.07" /><vehicle id="veh190" type="passenger" route="r1" depart="642.62" /><vehicle id="veh191" type="passenger" route="r1" depart="642.91" /><vehicle id="veh192" type="passenger" route="r1" depart="645.73" /><vehicle id="veh193" type="passenger" route="r1" depart="650.15" /><vehicle id="veh194" type="passenger" route="r1" depart="651.54" /><vehicle id="veh195" type="passenger" route="r1" depart="653.29" /><vehicle id="veh196" type="passenger" route="r1" depart="656.15" /><vehicle id="veh197" type="passenger" route="r1" depart="656.37" /><vehicle id="veh198" type="passenger" route="r1" depart="656.53" /><vehicle id="veh199" type="passenger" route="r1" depart="663.64" /><vehicle id="veh200" type="passenger" route="r1" depart="663.88" /><vehicle id="veh201" type="passenger" route="r1" depart="664.74" /><vehicle id="veh202" type="passenger" route="r1" depart="670.91" /><vehicle id="veh203" type="passenger" route="r1" depart="673.89" /><vehicle id="veh204" type="passenger" route="r1" depart="674.20" /><vehicle id="veh205" type="passenger" route="r1" depart="681.51" /><vehicle id="veh206" type="passenger" route="r1" depart="685.99" /><vehicle id="veh207" type="passenger" route="r1" depart="686.56" /><vehicle id="veh208" type="passenger" route="r1" depart="686.80" /><vehicle id="veh209" type="passenger" route="r1" depart="689.24" /><vehicle id="veh210" type="passenger" route="r1" depart="689.60" /><vehicle id="veh211" type="passenger" route="r1" depart="691.90" /><vehicle id="veh212" type="passenger" route="r1" depart="692.58" /><vehicle id="veh213" type="passenger" route="r1" depart="694.68" /><vehicle id="veh214" type="passenger" route="r1" depart="698.55" /><vehicle id="veh215" type="passenger" route="r1" depart="702.45" /><vehicle id="veh216" type="passenger" route="r1" depart="707.28" /><vehicle id="veh217" type="passenger" route="r1" depart="713.82" /><vehicle id="veh218" type="passenger" route="r1" depart="719.79" /><vehicle id="veh219" type="passenger" route="r1" depart="724.90" /><vehicle id="veh220" type="passenger" route="r1" depart="724.93" /><vehicle id="veh221" type="passenger" route="r1" depart="735.36" /><vehicle id="veh222" type="passenger" route="r1" depart="739.75" /><vehicle id="veh223" type="passenger" route="r1" depart="745.74" /><vehicle id="veh224" type="passenger" route="r1" depart="746.38" /><vehicle id="veh225" type="passenger" route="r1" depart="746.49" /><vehicle id="veh226" type="passenger" route="r1" depart="752.37" /><vehicle id="veh227" type="passenger" route="r1" depart="756.35" /><vehicle id="veh228" type="passenger" route="r1" depart="756.80" /><vehicle id="veh229" type="passenger" route="r1" depart="757.64" /><vehicle id="veh230" type="passenger" route="r1" depart="767.62" /><vehicle id="veh231" type="passenger" route="r1" depart="773.77" /><vehicle id="veh232" type="passenger" route="r1" depart="775.23" /><vehicle id="veh233" type="passenger" route="r1" depart="781.74" /><vehicle id="veh234" type="passenger" route="r1" depart="785.67" /><vehicle id="veh235" type="passenger" route="r1" depart="786.10" /><vehicle id="veh236" type="passenger" route="r1" depart="786.78" /><vehicle id="veh237" type="passenger" route="r1" depart="788.76" /><vehicle id="veh238" type="passenger" route="r1" depart="800.39" /><vehicle id="veh239" type="passenger" route="r1" depart="802.46" /><vehicle id="veh240" type="passenger" route="r1" depart="807.22" /><vehicle id="veh241" type="passenger" route="r1" depart="808.88" /><vehicle id="veh242" type="passenger" route="r1" depart="810.60" /><vehicle id="veh243" type="passenger" route="r1" depart="811.64" /><vehicle id="veh244" type="passenger" route="r1" depart="815.11" /><vehicle id="veh245" type="passenger" route="r1" depart="819.18" /><vehicle id="veh246" type="passenger" route="r1" depart="821.39" /><vehicle id="veh247" type="passenger" route="r1" depart="823.29" /><vehicle id="veh248" type="passenger" route="r1" depart="826.54" /><vehicle id="veh249" type="passenger" route="r1" depart="831.02" /><vehicle id="veh250" type="passenger" route="r1" depart="836.75" /><vehicle id="veh251" type="passenger" route="r1" depart="838.72" /><vehicle id="veh252" type="passenger" route="r1" depart="842.81" /><vehicle id="veh253" type="passenger" route="r1" depart="847.89" /><vehicle id="veh254" type="passenger" route="r1" depart="851.11" /><vehicle id="veh255" type="passenger" route="r1" depart="855.55" /><vehicle id="veh256" type="passenger" route="r1" depart="857.93" /><vehicle id="veh257" type="passenger" route="r1" depart="860.51" /><vehicle id="veh258" type="passenger" route="r1" depart="860.66" /><vehicle id="veh259" type="passenger" route="r1" depart="861.40" /><vehicle id="veh260" type="passenger" route="r1" depart="862.98" /><vehicle id="veh261" type="passenger" route="r1" depart="865.07" /><vehicle id="veh262" type="passenger" route="r1" depart="868.70" /><vehicle id="veh263" type="passenger" route="r1" depart="870.86" /><vehicle id="veh264" type="passenger" route="r1" depart="872.95" /><vehicle id="veh265" type="passenger" route="r1" depart="876.51" /><vehicle id="veh266" type="passenger" route="r1" depart="877.09" /><vehicle id="veh267" type="passenger" route="r1" depart="880.85" /><vehicle id="veh268" type="passenger" route="r1" depart="885.68" /><vehicle id="veh269" type="passenger" route="r1" depart="890.01" /><vehicle id="veh270" type="passenger" route="r1" depart="891.26" /><vehicle id="veh271" type="passenger" route="r1" depart="891.98" /><vehicle id="veh272" type="passenger" route="r1" depart="893.95" /><vehicle id="veh273" type="passenger" route="r1" depart="895.40" /><vehicle id="veh274" type="passenger" route="r1" depart="895.66" /><vehicle id="veh275" type="passenger" route="r1" depart="901.93" /><vehicle id="veh276" type="passenger" route="r1" depart="906.74" /><vehicle id="veh277" type="passenger" route="r1" depart="911.49" /><vehicle id="veh278" type="passenger" route="r1" depart="912.58" /><vehicle id="veh279" type="passenger" route="r1" depart="913.68" /><vehicle id="veh280" type="passenger" route="r1" depart="918.07" /><vehicle id="veh281" type="passenger" route="r1" depart="924.57" /><vehicle id="veh282" type="passenger" route="r1" depart="929.01" /><vehicle id="veh283" type="passenger" route="r1" depart="929.79" /><vehicle id="veh284" type="passenger" route="r1" depart="933.99" /><vehicle id="veh285" type="passenger" route="r1" depart="943.57" /><vehicle id="veh286" type="passenger" route="r1" depart="943.59" /><vehicle id="veh287" type="passenger" route="r1" depart="946.36" /><vehicle id="veh288" type="passenger" route="r1" depart="951.24" /><vehicle id="veh289" type="passenger" route="r1" depart="952.00" /><vehicle id="veh290" type="passenger" route="r1" depart="953.81" /><vehicle id="veh291" type="passenger" route="r1" depart="965.86" /><vehicle id="veh292" type="passenger" route="r1" depart="968.23" /><vehicle id="veh293" type="passenger" route="r1" depart="971.11" /><vehicle id="veh294" type="passenger" route="r1" depart="975.85" /><vehicle id="veh295" type="passenger" route="r1" depart="976.08" /><vehicle id="veh296" type="passenger" route="r1" depart="982.21" /><vehicle id="veh297" type="passenger" route="r1" depart="983.63" /><vehicle id="veh298" type="passenger" route="r1" depart="985.42" /><vehicle id="veh299" type="passenger" route="r1" depart="995.68" /><vehicle id="veh300" type="passenger" route="r1" depart="995.96" /><vehicle id="veh301" type="passenger" route="r1" depart="997.05" /><vehicle id="veh302" type="passenger" route="r1" depart="997.94" /><vehicle id="veh303" type="passenger" route="r1" depart="1006.66" /><vehicle id="veh304" type="passenger" route="r1" depart="1010.77" /><vehicle id="veh305" type="passenger" route="r1" depart="1011.19" /><vehicle id="veh306" type="passenger" route="r1" depart="1011.47" /><vehicle id="veh307" type="passenger" route="r1" depart="1017.85" /><vehicle id="veh308" type="passenger" route="r1" depart="1021.51" /><vehicle id="veh309" type="passenger" route="r1" depart="1026.50" /><vehicle id="veh310" type="passenger" route="r1" depart="1036.12" /><vehicle id="veh311" type="passenger" route="r1" depart="1044.53" /><vehicle id="veh312" type="passenger" route="r1" depart="1050.98" /><vehicle id="veh313" type="passenger" route="r1" depart="1051.39" /><vehicle id="veh314" type="passenger" route="r1" depart="1051.68" /><vehicle id="veh315" type="passenger" route="r1" depart="1055.32" /><vehicle id="veh316" type="passenger" route="r1" depart="1057.59" /><vehicle id="veh317" type="passenger" route="r1" depart="1062.06" /><vehicle id="veh318" type="passenger" route="r1" depart="1064.37" /><vehicle id="veh319" type="passenger" route="r1" depart="1065.42" /><vehicle id="veh320" type="passenger" route="r1" depart="1066.32" /><vehicle id="veh321" type="passenger" route="r1" depart="1067.28" /><vehicle id="veh322" type="passenger" route="r1" depart="1067.38" /><vehicle id="veh323" type="passenger" route="r1" depart="1067.78" /><vehicle id="veh324" type="passenger" route="r1" depart="1068.77" /><vehicle id="veh325" type="passenger" route="r1" depart="1071.39" /><vehicle id="veh326" type="passenger" route="r1" depart="1079.69" /><vehicle id="veh327" type="passenger" route="r1" depart="1080.05" /><vehicle id="veh328" type="passenger" route="r1" depart="1084.23" /><vehicle id="veh329" type="passenger" route="r1" depart="1085.42" /><vehicle id="veh330" type="passenger" route="r1" depart="1085.95" /><vehicle id="veh331" type="passenger" route="r1" depart="1088.67" /><vehicle id="veh332" type="passenger" route="r1" depart="1088.77" /><vehicle id="veh333" type="passenger" route="r1" depart="1089.41" /><vehicle id="veh334" type="passenger" route="r1" depart="1092.39" /><vehicle id="veh335" type="passenger" route="r1" depart="1095.78" /><vehicle id="veh336" type="passenger" route="r1" depart="1097.52" /><vehicle id="veh337" type="passenger" route="r1" depart="1100.69" /><vehicle id="veh338" type="passenger" route="r1" depart="1107.59" /><vehicle id="veh339" type="passenger" route="r1" depart="1115.82" /><vehicle id="veh340" type="passenger" route="r1" depart="1117.17" /><vehicle id="veh341" type="passenger" route="r1" depart="1119.36" /><vehicle id="veh342" type="passenger" route="r1" depart="1124.07" /><vehicle id="veh343" type="passenger" route="r1" depart="1127.56" /><vehicle id="veh344" type="passenger" route="r1" depart="1132.63" /><vehicle id="veh345" type="passenger" route="r1" depart="1134.20" /><vehicle id="veh346" type="passenger" route="r1" depart="1139.07" /><vehicle id="veh347" type="passenger" route="r1" depart="1143.62" /><vehicle id="veh348" type="passenger" route="r1" depart="1143.67" /><vehicle id="veh349" type="passenger" route="r1" depart="1154.73" /><vehicle id="veh350" type="passenger" route="r1" depart="1160.22" /><vehicle id="veh351" type="passenger" route="r1" depart="1162.10" /><vehicle id="veh352" type="passenger" route="r1" depart="1163.78" /><vehicle id="veh353" type="passenger" route="r1" depart="1165.42" /><vehicle id="veh354" type="passenger" route="r1" depart="1170.00" /><vehicle id="veh355" type="passenger" route="r1" depart="1179.71" /><vehicle id="veh356" type="passenger" route="r1" depart="1180.22" /><vehicle id="veh357" type="passenger" route="r1" depart="1187.50" /><vehicle id="veh358" type="passenger" route="r1" depart="1193.94" /><vehicle id="veh359" type="passenger" route="r1" depart="1197.59" /><vehicle id="veh360" type="passenger" route="r1" depart="1198.35" /><vehicle id="veh361" type="passenger" route="r1" depart="1199.54" /><vehicle id="veh362" type="passenger" route="r1" depart="1200.75" /><vehicle id="veh363" type="passenger" route="r1" depart="1203.12" /><vehicle id="veh364" type="passenger" route="r1" depart="1206.06" /><vehicle id="veh365" type="passenger" route="r1" depart="1212.03" /><vehicle id="veh366" type="passenger" route="r1" depart="1212.28" /><vehicle id="veh367" type="passenger" route="r1" depart="1215.62" /><vehicle id="veh368" type="passenger" route="r1" depart="1219.48" /><vehicle id="veh369" type="passenger" route="r1" depart="1219.60" /><vehicle id="veh370" type="passenger" route="r1" depart="1221.26" /><vehicle id="veh371" type="passenger" route="r1" depart="1229.23" /><vehicle id="veh372" type="passenger" route="r1" depart="1229.84" /><vehicle id="veh373" type="passenger" route="r1" depart="1229.87" /><vehicle id="veh374" type="passenger" route="r1" depart="1232.80" /><vehicle id="veh375" type="passenger" route="r1" depart="1235.44" /><vehicle id="veh376" type="passenger" route="r1" depart="1235.66" /><vehicle id="veh377" type="passenger" route="r1" depart="1235.67" /><vehicle id="veh378" type="passenger" route="r1" depart="1238.39" /><vehicle id="veh379" type="passenger" route="r1" depart="1238.42" /><vehicle id="veh380" type="passenger" route="r1" depart="1239.74" /><vehicle id="veh381" type="passenger" route="r1" depart="1242.39" /><vehicle id="veh382" type="passenger" route="r1" depart="1245.60" /><vehicle id="veh383" type="passenger" route="r1" depart="1246.72" /><vehicle id="veh384" type="passenger" route="r1" depart="1248.42" /><vehicle id="veh385" type="passenger" route="r1" depart="1249.00" /><vehicle id="veh386" type="passenger" route="r1" depart="1251.01" /><vehicle id="veh387" type="passenger" route="r1" depart="1255.03" /><vehicle id="veh388" type="passenger" route="r1" depart="1255.25" /><vehicle id="veh389" type="passenger" route="r1" depart="1256.50" /><vehicle id="veh390" type="passenger" route="r1" depart="1256.99" /><vehicle id="veh391" type="passenger" route="r1" depart="1260.86" /><vehicle id="veh392" type="passenger" route="r1" depart="1267.13" /><vehicle id="veh393" type="passenger" route="r1" depart="1271.94" /><vehicle id="veh394" type="passenger" route="r1" depart="1278.78" /><vehicle id="veh395" type="passenger" route="r1" depart="1279.56" /><vehicle id="veh396" type="passenger" route="r1" depart="1279.81" /><vehicle id="veh397" type="passenger" route="r1" depart="1282.48" /><vehicle id="veh398" type="passenger" route="r1" depart="1286.66" /><vehicle id="veh399" type="passenger" route="r1" depart="1290.79" /><vehicle id="veh400" type="passenger" route="r1" depart="1299.12" /><vehicle id="veh401" type="passenger" route="r1" depart="1303.98" /><vehicle id="veh402" type="passenger" route="r1" depart="1304.02" /><vehicle id="veh403" type="passenger" route="r1" depart="1304.43" /><vehicle id="veh404" type="passenger" route="r1" depart="1305.85" /><vehicle id="veh405" type="passenger" route="r1" depart="1307.73" /><vehicle id="veh406" type="passenger" route="r1" depart="1308.87" /><vehicle id="veh407" type="passenger" route="r1" depart="1310.04" /><vehicle id="veh408" type="passenger" route="r1" depart="1311.37" /><vehicle id="veh409" type="passenger" route="r1" depart="1324.07" /><vehicle id="veh410" type="passenger" route="r1" depart="1326.19" /><vehicle id="veh411" type="passenger" route="r1" depart="1334.04" /><vehicle id="veh412" type="passenger" route="r1" depart="1336.97" /><vehicle id="veh413" type="passenger" route="r1" depart="1337.64" /><vehicle id="veh414" type="passenger" route="r1" depart="1339.57" /><vehicle id="veh415" type="passenger" route="r1" depart="1345.74" /><vehicle id="veh416" type="passenger" route="r1" depart="1345.76" /><vehicle id="veh417" type="passenger" route="r1" depart="1346.94" /><vehicle id="veh418" type="passenger" route="r1" depart="1350.35" /><vehicle id="veh419" type="passenger" route="r1" depart="1351.72" /><vehicle id="veh420" type="passenger" route="r1" depart="1353.03" /><vehicle id="veh421" type="passenger" route="r1" depart="1357.44" /><vehicle id="veh422" type="passenger" route="r1" depart="1358.52" /><vehicle id="veh423" type="passenger" route="r1" depart="1358.97" /><vehicle id="veh424" type="passenger" route="r1" depart="1359.62" /><vehicle id="veh425" type="passenger" route="r1" depart="1360.87" /><vehicle id="veh426" type="passenger" route="r1" depart="1367.19" /><vehicle id="veh427" type="passenger" route="r1" depart="1368.68" /><vehicle id="veh428" type="passenger" route="r1" depart="1369.36" /><vehicle id="veh429" type="passenger" route="r1" depart="1370.84" /><vehicle id="veh430" type="passenger" route="r1" depart="1384.25" /><vehicle id="veh431" type="passenger" route="r1" depart="1389.75" /><vehicle id="veh432" type="passenger" route="r1" depart="1391.15" /><vehicle id="veh433" type="passenger" route="r1" depart="1391.68" /><vehicle id="veh434" type="passenger" route="r1" depart="1394.56" /><vehicle id="veh435" type="passenger" route="r1" depart="1395.34" /><vehicle id="veh436" type="passenger" route="r1" depart="1396.64" /><vehicle id="veh437" type="passenger" route="r1" depart="1397.66" /><vehicle id="veh438" type="passenger" route="r1" depart="1402.49" /><vehicle id="veh439" type="passenger" route="r1" depart="1402.71" /><vehicle id="veh440" type="passenger" route="r1" depart="1403.18" /><vehicle id="veh441" type="passenger" route="r1" depart="1405.57" /><vehicle id="veh442" type="passenger" route="r1" depart="1421.33" /><vehicle id="veh443" type="passenger" route="r1" depart="1424.03" /><vehicle id="veh444" type="passenger" route="r1" depart="1424.93" /><vehicle id="veh445" type="passenger" route="r1" depart="1425.53" /><vehicle id="veh446" type="pass